/*--------------------------------*- C++ -*----------------------------------*\
| =========                 |                                                 |
| \\      /  F ield         | OpenFOAM: The Open Source CFD Toolbox           |
|  \\    /   O peration     | Version:  v1912                                 |
|   \\  /    A nd           | Website:  www.openfoam.com                      |
|    \\/     M anipulation  |                                                 |
\*---------------------------------------------------------------------------*/
FoamFile
{
    version     2.0;
    format      ascii;
    class       volVectorField;
    location    "0";
    object      U;
}
// * * * * * * * * * * * * * * * * * * * * * * * * * * * * * * * * * * * * * //

Uinlet          ( 0.1 0 0 );

dimensions      [ 0 1 -1 0 0 0 0 ];

internalField   uniform $Uinlet;

boundaryField
{
    FarField
    {
        type            inletOutlet;
        inletValue      uniform $Uinlet;
        value           uniform $Uinlet;
    }
    Inlet
    {
        type            inletOutlet;
        inletValue      uniform $Uinlet;
        value           uniform $Uinlet;
    }
    Outlet
    {
        type            inletOutlet;
        inletValue      uniform $Uinlet;
        value           uniform $Uinlet;
    }
    Wall
    {
        type            noSlip;
    }
#includeEtc "caseDicts/setConstraintTypes"
}


// ************************************************************************* //
